*Heading
** Job name: Tri3fFEMdload Model name: Tri3fFEMdload
** Generated by: Abaqus/CAE Student Edition 2019
*Preprint, echo=NO, model=NO, history=NO, contact=NO
**
** PARTS
**
*Part, name=Part-1
*Node
      1,         350.,          50.
      2,        337.5,          50.
      3,         325.,          50.
      4,        312.5,          50.
      5,         300.,          50.
      6,        287.5,          50.
      7,         275.,          50.
      8,        262.5,          50.
      9,         250.,          50.
     10,        237.5,          50.
     11,         225.,          50.
     12,        212.5,          50.
     13,         200.,          50.
     14,        187.5,          50.
     15,         175.,          50.
     16,        162.5,          50.
     17,         150.,          50.
     18,        137.5,          50.
     19,         125.,          50.
     20,        112.5,          50.
** ... 385 like lines cut
*Element, type=CPS3
  1,   1,   2,  83
  2,  83,  82,   1
  3,   2,   3,  84
  4,  84,  83,   2
  5,   3,   4,  85
  6,  85,  84,   3
  7,   4,   5,  86
  8,  86,  85,   4
  9,   5,   6,  87
 10,  87,  86,   5
 11,   6,   7,  88
 12,  88,  87,   6
 13,   7,   8,  89
 14,  89,  88,   7
 15,   8,   9,  90
 16,  90,  89,   8
 17,   9,  10,  91
 18,  91,  90,   9
 19,  10,  11,  92
 20,  92,  91,  10
** ... 620 like lines cut
*Nset, nset=_PickedSet2, internal, generate
   1,  405,    1
*Elset, elset=_PickedSet2, internal, generate
   1,  640,    1
*Nset, nset=fix-all, generate
  81,  405,   81
*Elset, elset=fix-all, generate
 159,  639,  160
*Nset, nset=cload-dir2
 325,
*Elset, elset=dload1, generate
   1,  160,    1
** Section: Section-1
*Solid Section, elset=_PickedSet2, material=Material-1
50.,
*End Part
**  
**
** ASSEMBLY
**
*Assembly, name=Assembly
**  
*Instance, name=Part-1-1, part=Part-1
*End Instance
**  
*Nset, nset=Left, instance=Part-1-1, generate
  81,  405,   81
*Elset, elset=Left, instance=Part-1-1, generate
 159,  639,  160
*Nset, nset=LoadPoint, instance=Part-1-1
 325,
*Nset, nset=Topsurf, instance=Part-1-1, generate
  1,  81,   1
*Elset, elset=Topsurf, instance=Part-1-1, generate
   1,  159,    2
*End Assembly
** 
** MATERIALS
** 
*Material, name=Material-1
*Elastic
200000., 0.3
** 
** BOUNDARY CONDITIONS
** 
** Name: BC-1 Type: Symmetry/Antisymmetry/Encastre
*Boundary
Left, ENCASTRE
** ----------------------------------------------------------------
** 
** STEP: Step-1
** 
*Step, name=Step-1, nlgeom=NO
*Static
1., 1., 1e-05, 1.
** 
** LOADS
** 
** Name: Load-1   Type: Concentrated force
*Cload
LoadPoint, 2, -1000.
** 
** OUTPUT REQUESTS
** 
*Restart, write, frequency=0
** 
** FIELD OUTPUT: F-Output-1
** 
*Output, field
*Node Output
RF, U
** 
** HISTORY OUTPUT: H-Output-1
** 
*Output, history, variable=PRESELECT
*End Step
